  Page 1                                    Tue Mar 27 10:18:08 2018

  ******************************************************************
  *                           E P A N E T                          *
  *                   Hydraulic and Water Quality                  *
  *                   Analysis for Pipe Networks                   *
  *                         Version 2.00.12                        *
  ******************************************************************
  
  Analysis begun Tue Mar 27 10:18:08 2018

   
  Hydraulic Status:
  -----------------------------------------------------------------------
     0:00:00: Balanced after 5 trials
     0:00:00: Reservoir River is emptying
     0:00:00: Reservoir Lake is closed
     0:00:00: Tank 1 is filling at 13.10 ft
     0:00:00: Tank 2 is emptying at 23.50 ft
     0:00:00: Tank 3 is filling at 29.00 ft
   
     0:10:00: Balanced after 4 trials
     0:10:00: Tank 1 is emptying at 13.21 ft
   
     0:20:00: Balanced after 4 trials
     0:20:00: Tank 1 is filling at 13.08 ft
   
     0:30:00: Balanced after 2 trials
   
     0:40:00: Balanced after 4 trials
     0:40:00: Tank 2 is filling at 22.35 ft
   
     0:50:00: Balanced after 3 trials
     0:50:00: Tank 2 is emptying at 22.45 ft
   
     1:00:00: Pump 10 changed by timer control
     1:00:00: Balanced after 7 trials
     1:00:00: Reservoir Lake is emptying
     1:00:00: Tank 2 is filling at 22.42 ft
     1:00:00: Pump 10 changed from closed to open
   
     1:10:00: Balanced after 3 trials
   
     1:20:00: Balanced after 2 trials
   
     1:30:00: Balanced after 3 trials
   
     1:40:00: Balanced after 2 trials
   
     1:50:00: Balanced after 2 trials
   
     2:00:00: Balanced after 2 trials
   
     2:10:00: Balanced after 2 trials
   
     2:20:00: Balanced after 2 trials
   
     2:30:00: Balanced after 2 trials
   
     2:40:00: Balanced after 3 trials
   
     2:50:00: Balanced after 2 trials
   
     3:00:00: Balanced after 2 trials
   
     3:10:00: Balanced after 2 trials
   
     3:20:00: Balanced after 2 trials
   
     3:30:00: Balanced after 2 trials
   
     3:40:00: Balanced after 3 trials
   
     3:49:00: Pump 335 changed by Tank 1 control
     3:49:00: Pipe 330 changed by Tank 1 control
     3:49:00: Balanced after 4 trials
     3:49:00: Tank 2 is emptying at 25.85 ft
     3:49:00: Tank 3 is emptying at 33.82 ft
     3:49:00: Pipe 330 changed from closed to open
     3:49:00: Pump 335 changed from open to closed
   
     3:50:00: Balanced after 4 trials
     3:50:00: Tank 1 is emptying at 19.11 ft
   
     4:00:00: Balanced after 4 trials
     4:00:00: Tank 1 is filling at 19.11 ft
   
     4:10:00: Balanced after 3 trials
     4:10:00: Tank 1 is emptying at 19.22 ft
   
     4:20:00: Balanced after 3 trials
     4:20:00: Tank 1 is filling at 19.18 ft
   
     4:30:00: Balanced after 2 trials
   
     4:40:00: Balanced after 3 trials
     4:40:00: Tank 2 is filling at 25.18 ft
     4:40:00: Tank 3 is filling at 33.58 ft
   
     4:50:00: Balanced after 3 trials
     4:50:00: Tank 3 is emptying at 33.63 ft
   
     5:00:00: Balanced after 3 trials
     5:00:00: Tank 3 is filling at 33.61 ft
   
     5:10:00: Balanced after 3 trials
   
     5:20:00: Balanced after 2 trials
   
     5:30:00: Balanced after 4 trials
     5:30:00: Tank 3 is emptying at 33.77 ft
   
     5:40:00: Balanced after 2 trials
   
     5:50:00: Balanced after 3 trials
     5:50:00: Tank 2 is emptying at 25.81 ft
   
     6:00:00: Balanced after 2 trials
     6:00:00: Tank 2 is filling at 25.81 ft
   
     6:10:00: Balanced after 3 trials
   
     6:20:00: Balanced after 3 trials
   
     6:30:00: Balanced after 3 trials
   
     6:40:00: Balanced after 3 trials
     6:40:00: Tank 3 is filling at 33.41 ft
   
     6:50:00: Balanced after 2 trials
   
     7:00:00: Balanced after 2 trials
   
     7:10:00: Balanced after 2 trials
   
     7:20:00: Balanced after 3 trials
   
     7:30:00: Balanced after 2 trials
     7:30:00: Tank 3 is emptying at 33.47 ft
   
     7:40:00: Balanced after 4 trials
     7:40:00: Tank 1 is emptying at 21.11 ft
     7:40:00: Tank 2 is emptying at 27.06 ft
   
     7:50:00: Balanced after 3 trials
   
     8:00:00: Balanced after 3 trials
     8:00:00: Tank 1 is filling at 20.99 ft
     8:00:00: Tank 3 is filling at 33.32 ft
   
     8:10:00: Balanced after 4 trials
     8:10:00: Tank 1 is emptying at 21.00 ft
     8:10:00: Tank 3 is emptying at 33.34 ft
   
     8:20:00: Balanced after 3 trials
     8:20:00: Tank 3 is filling at 33.30 ft
   
     8:30:00: Balanced after 2 trials
   
     8:40:00: Balanced after 3 trials
     8:40:00: Tank 1 is filling at 20.79 ft
     8:40:00: Tank 2 is filling at 26.34 ft
   
     8:50:00: Balanced after 3 trials
   
     9:00:00: Balanced after 3 trials
   
     9:10:00: Balanced after 3 trials
   
     9:20:00: Balanced after 2 trials
   
     9:30:00: Balanced after 3 trials
     9:30:00: Tank 1 is emptying at 21.15 ft
     9:30:00: Tank 3 is emptying at 33.60 ft
   
     9:40:00: Balanced after 2 trials
   
     9:50:00: Balanced after 3 trials
     9:50:00: Tank 2 is emptying at 26.87 ft
   
    10:00:00: Balanced after 2 trials
    10:00:00: Tank 2 is filling at 26.85 ft
   
    10:10:00: Balanced after 3 trials
    10:10:00: Tank 1 is filling at 21.06 ft
   
    10:20:00: Balanced after 3 trials
   
    10:30:00: Balanced after 3 trials
   
    10:40:00: Balanced after 3 trials
    10:40:00: Tank 3 is filling at 33.35 ft
   
    10:50:00: Balanced after 2 trials
   
    11:00:00: Balanced after 2 trials
   
    11:10:00: Balanced after 2 trials
   
    11:20:00: Balanced after 3 trials
   
    11:30:00: Balanced after 2 trials
   
    11:40:00: Balanced after 3 trials
    11:40:00: Tank 1 is emptying at 21.73 ft
    11:40:00: Tank 2 is emptying at 27.92 ft
    11:40:00: Tank 3 is emptying at 33.46 ft
   
    11:50:00: Balanced after 3 trials
   
    12:00:00: Balanced after 3 trials
    12:00:00: Tank 3 is filling at 33.33 ft
   
    12:10:00: Balanced after 4 trials
    12:10:00: Tank 3 is emptying at 33.36 ft
   
    12:20:00: Balanced after 3 trials
    12:20:00: Tank 3 is filling at 33.32 ft
   
    12:30:00: Balanced after 2 trials
   
    12:40:00: Balanced after 4 trials
    12:40:00: Tank 1 is filling at 21.27 ft
    12:40:00: Tank 2 is filling at 27.09 ft
   
    12:50:00: Balanced after 3 trials
   
    13:00:00: Balanced after 3 trials
   
    13:10:00: Balanced after 3 trials
   
    13:20:00: Balanced after 3 trials
   
    13:30:00: Balanced after 3 trials
    13:30:00: Tank 1 is emptying at 21.55 ft
    13:30:00: Tank 3 is emptying at 33.66 ft
   
    13:40:00: Balanced after 2 trials
   
    13:50:00: Balanced after 3 trials
    13:50:00: Tank 2 is emptying at 27.51 ft
   
    14:00:00: Balanced after 2 trials
   
    14:10:00: Balanced after 3 trials
    14:10:00: Tank 2 is filling at 27.46 ft
   
    14:20:00: Balanced after 3 trials
    14:20:00: Tank 1 is filling at 21.40 ft
   
    14:30:00: Balanced after 3 trials
   
    14:40:00: Balanced after 3 trials
    14:40:00: Tank 3 is filling at 33.44 ft
   
    14:50:00: Balanced after 2 trials
   
    15:00:00: Pump 10 changed by timer control
    15:00:00: Balanced after 5 trials
    15:00:00: Reservoir Lake is closed
    15:00:00: Tank 1 is emptying at 21.69 ft
    15:00:00: Tank 3 is emptying at 33.48 ft
    15:00:00: Pump 10 changed from open to closed
   
    15:10:00: Balanced after 2 trials
   
    15:20:00: Balanced after 3 trials
    15:20:00: Tank 2 is emptying at 28.10 ft
   
    15:30:00: Balanced after 2 trials
   
    15:40:00: Balanced after 3 trials
   
    15:50:00: Balanced after 3 trials
   
    16:00:00: Balanced after 3 trials
   
    16:10:00: Balanced after 3 trials
   
    16:20:00: Balanced after 3 trials
   
    16:30:00: Balanced after 2 trials
   
    16:40:00: Balanced after 4 trials
    16:40:00: Tank 2 is filling at 26.02 ft
   
    16:50:00: Balanced after 3 trials
    16:50:00: Tank 2 is emptying at 26.07 ft
   
    17:00:00: Balanced after 3 trials
   
    17:10:00: Balanced after 3 trials
   
    17:20:00: Balanced after 2 trials
   
    17:30:00: Balanc